Kundur_modified_type2.txt
 08/19/93 UW ARCHIVE           100.0  1962 W IEEE 14 Bus Test Case
BUS DATA FOLLOWS                            14 ITEMS
   1 Bus 1     HV  1  1  3 1.000   20.2      0.0      0.0    700.0   185.0     0.0  1.030     0.0     0.0   0.0    0.0        0
   2 Bus G2    HV  1  1  2 1.000    0.0      0.0      0.0    700.0   235.0     0.0  1.010     0.0     0.0   0.0    0.0        0
   3 Bus G3    HV  1  1  2 1.000    0.0      0.0      0.0    719.0   176.0     0.0  1.030     0.0     0.0   0.0    0.0        0
   4 Bus G4    HV  1  1  2 1.000    0.0      0.0      0.0    700.0   202.0     0.0  1.010     0.0     0.0   0.0    0.0        0
   5 Bus 5     HV  1  1  0 1.000    0.0      0.0      0.0      0.0     0.0     0.0  0.0       0.0     0.0   0.0    0.0        0
   6 Bus 6     LV  1  1  0 1.000    0.0      0.0      0.0      0.0     0.0     0.0  0.0       0.0     0.0   0.0    0.0        0
   7 Bus 7     ZV  1  1  0 1.000    0.0      0.0      0.0      0.0     0.0     0.0  0.0       0.0     0.0   9.2704 3.04132    0
   8 Bus 8     TV  1  1  0 1.000    0.0      0.0      0.0      0.0     0.0     0.0  0.0       0.0     0.0   0.0    0.0        0
   9 Bus 9     LV  1  1  0 1.000    0.0      0.0      0.0      0.0     0.0     0.0  0.0       0.0     0.0  17.5807 3.00506    0
  10 Bus 10    LV  1  1  0 1.000    0.0      0.0      0.0      0.0     0.0     0.0  0.0       0.0     0.0   0.0    0.0        0
  11 Bus 11    LV  1  1  0 1.000    0.0      0.0      0.0      0.0     0.0     0.0  0.0       0.0     0.0   0.0    0.0        0
  12 Bus 2     LV  1  1  0 1.000    0.0      0.0      0.0      0.0     0.0     0.0  0.0       0.0     0.0   0.0    0.0        0
  13 Bus 3     LV  1  1  0 1.000    0.0      0.0      0.0      0.0     0.0     0.0  0.0       0.0     0.0   0.0    0.0        0
  14 Bus 4     LV  1  1  0 1.000    0.0      0.0      0.0      0.0     0.0     0.0  0.0       0.0     0.0   0.0    0.0        0
-999 
BRANCH DATA FOLLOWS                         13 ITEMS
   1    5  1  1 1 0  0.0       0.01667     0.0        0     0     0    0 0  0.0       0.0 0.0    0.0     0.0    0.0   0.0
  12    6  1  1 1 0  0.0       0.01667     0.0        0     0     0    0 0  0.0       0.0 0.0    0.0     0.0    0.0   0.0
   5    6  1  1 1 0  0.0025    0.025       0.04375    0     0     0    0 0  0.0       0.0 0.0    0.0     0.0    0.0   0.0
   6    7  1  1 1 0  0.0010    0.010       0.0175     0     0     0    0 0  0.0       0.0 0.0    0.0     0.0    0.0   0.0
   7    8  1  1 1 0  0.003667  0.03667     0.5775     0     0     0    0 0  0.0       0.0 0.0    0.0     0.0    0.0   0.0
   8    9  1  1 1 0  0.0055    0.055       0.3850     0     0     0    0 0  0.0       0.0 0.0    0.0     0.0    0.0   0.0
   9   10  1  1 1 0  0.0010    0.010       0.0175     0     0     0    0 0  0.0       0.0 0.0    0.0     0.0    0.0   0.0
  10   14  1  1 1 0  0.0       0.01667     0.0        0     0     0    0 0  0.0       0.0 0.0    0.0     0.0    0.0   0.0
  10   11  1  1 1 0  0.0025    0.025       0.04375    0     0     0    0 0  0.0       0.0 0.0    0.0     0.0    0.0   0.0
  11   13  1  1 1 0  0.0       0.01667     0.0        0     0     0    0 0  0.0       0.0 0.0    0.0     0.0    0.0   0.0
   2   12  1  1 1 0  0.0       0.0003571   0.0        0     0     0    0 0  0.0       0.0 0.0    0.0     0.0    0.0   0.0
   3   13  1  1 1 0  0.0       0.0003571   0.0        0     0     0    0 0  0.0       0.0 0.0    0.0     0.0    0.0   0.0
   4   14  1  1 1 0  0.0       0.0003571   0.0        0     0     0    0 0  0.0       0.0 0.0    0.0     0.0    0.0   0.0
-999
LOSS ZONES FOLLOWS                     1 ITEMS
  1 IEEE 14 BUS
-99
INTERCHANGE DATA FOLLOWS                 1 ITEMS
 1    2 Bus 2     HV    0.0  999.99  IEEE14  IEEE 14 Bus Test Case
-9
TIE LINES FOLLOWS                     0 ITEMS
-999
END OF DATA